
     RDKit          3D

  9  8  0  0  0  0  0  0  0  0999 V2000
   -0.9254    0.0742    0.0328 C   0  0  0  0  0  0  0  0  0  0  0  0
    0.5123   -0.4192   -0.0743 C   0  0  0  0  0  0  0  0  0  0  0  0
    1.3778    0.4494    0.6044 O   0  0  0  0  0  0  0  0  0  0  0  0
   -1.0225    1.0731   -0.4429 H   0  0  0  0  0  0  0  0  0  0  0  0
   -1.6044   -0.6368   -0.4832 H   0  0  0  0  0  0  0  0  0  0  0  0
   -1.2236    0.1472    1.1002 H   0  0  0  0  0  0  0  0  0  0  0  0
    0.8058   -0.5060   -1.1451 H   0  0  0  0  0  0  0  0  0  0  0  0
    0.5852   -1.4274    0.3853 H   0  0  0  0  0  0  0  0  0  0  0  0
    1.4948    1.2455    0.0227 H   0  0  0  0  0  0  0  0  0  0  0  0
  1  2  1  0
  2  3  1  0
  1  4  1  0
  1  5  1  0
  1  6  1  0
  2  7  1  0
  2  8  1  0
  3  9  1  0
M  END
>  <Energy>  (1) 
0

$$$$

     RDKit          3D

  9  8  0  0  0  0  0  0  0  0999 V2000
   -0.9267    0.0636    0.0076 C   0  0  0  0  0  0  0  0  0  0  0  0
    0.5334   -0.1666   -0.3626 C   0  0  0  0  0  0  0  0  0  0  0  0
    1.2974   -0.3998    0.7890 O   0  0  0  0  0  0  0  0  0  0  0  0
   -1.5265    0.2180   -0.9140 H   0  0  0  0  0  0  0  0  0  0  0  0
   -1.3243   -0.8185    0.5528 H   0  0  0  0  0  0  0  0  0  0  0  0
   -1.0198    0.9637    0.6516 H   0  0  0  0  0  0  0  0  0  0  0  0
    0.6042   -1.0556   -1.0243 H   0  0  0  0  0  0  0  0  0  0  0  0
    0.9271    0.7122   -0.9219 H   0  0  0  0  0  0  0  0  0  0  0  0
    1.4353    0.4831    1.2218 H   0  0  0  0  0  0  0  0  0  0  0  0
  1  2  1  0
  2  3  1  0
  1  4  1  0
  1  5  1  0
  1  6  1  0
  2  7  1  0
  2  8  1  0
  3  9  1  0
M  END
>  <Energy>  (2) 
0

$$$$

     RDKit          3D

  9  8  0  0  0  0  0  0  0  0999 V2000
   -0.9254    0.0742    0.0328 C   0  0  0  0  0  0  0  0  0  0  0  0
    0.5123   -0.4192   -0.0743 C   0  0  0  0  0  0  0  0  0  0  0  0
    1.3778    0.4494    0.6044 O   0  0  0  0  0  0  0  0  0  0  0  0
   -1.0225    1.0731   -0.4429 H   0  0  0  0  0  0  0  0  0  0  0  0
   -1.2236    0.1472    1.1002 H   0  0  0  0  0  0  0  0  0  0  0  0
   -1.6044   -0.6368   -0.4832 H   0  0  0  0  0  0  0  0  0  0  0  0
    0.8058   -0.5060   -1.1451 H   0  0  0  0  0  0  0  0  0  0  0  0
    0.5852   -1.4274    0.3853 H   0  0  0  0  0  0  0  0  0  0  0  0
    1.4948    1.2455    0.0227 H   0  0  0  0  0  0  0  0  0  0  0  0
  1  2  1  0
  2  3  1  0
  1  4  1  0
  1  5  1  0
  1  6  1  0
  2  7  1  0
  2  8  1  0
  3  9  1  0
M  END
>  <Energy>  (3) 
0

$$$$

     RDKit          3D

  9  8  0  0  0  0  0  0  0  0999 V2000
   -0.9229    0.1051   -0.0072 C   0  0  0  0  0  0  0  0  0  0  0  0
    0.5290   -0.2083   -0.3471 C   0  0  0  0  0  0  0  0  0  0  0  0
    1.3910    0.6162    0.3886 O   0  0  0  0  0  0  0  0  0  0  0  0
   -1.5963   -0.5334   -0.6170 H   0  0  0  0  0  0  0  0  0  0  0  0
   -1.1149   -0.0950    1.0682 H   0  0  0  0  0  0  0  0  0  0  0  0
   -1.1426    1.1718   -0.2252 H   0  0  0  0  0  0  0  0  0  0  0  0
    0.6961   -0.0246   -1.4294 H   0  0  0  0  0  0  0  0  0  0  0  0
    0.7445   -1.2815   -0.1419 H   0  0  0  0  0  0  0  0  0  0  0  0
    1.4160    0.2496    1.3110 H   0  0  0  0  0  0  0  0  0  0  0  0
  1  2  1  0
  2  3  1  0
  1  4  1  0
  1  5  1  0
  1  6  1  0
  2  7  1  0
  2  8  1  0
  3  9  1  0
M  END
>  <Energy>  (4) 
0

$$$$

     RDKit          3D

  9  8  0  0  0  0  0  0  0  0999 V2000
   -0.9255    0.0765    0.0215 C   0  0  0  0  0  0  0  0  0  0  0  0
    0.5121   -0.4195   -0.0742 C   0  0  0  0  0  0  0  0  0  0  0  0
    1.3601    0.6191   -0.4823 O   0  0  0  0  0  0  0  0  0  0  0  0
   -1.5915   -0.7614    0.3170 H   0  0  0  0  0  0  0  0  0  0  0  0
   -1.2577    0.4714   -0.9620 H   0  0  0  0  0  0  0  0  0  0  0  0
   -1.0016    0.8814    0.7830 H   0  0  0  0  0  0  0  0  0  0  0  0
    0.8395   -0.8286    0.9085 H   0  0  0  0  0  0  0  0  0  0  0  0
    0.5644   -1.2383   -0.8225 H   0  0  0  0  0  0  0  0  0  0  0  0
    1.5003    1.1994    0.3111 H   0  0  0  0  0  0  0  0  0  0  0  0
  1  2  1  0
  2  3  1  0
  1  4  1  0
  1  5  1  0
  1  6  1  0
  2  7  1  0
  2  8  1  0
  3  9  1  0
M  END
>  <Energy>  (5) 
0

$$$$

     RDKit          3D

  9  8  0  0  0  0  0  0  0  0999 V2000
   -0.9267    0.0636    0.0076 C   0  0  0  0  0  0  0  0  0  0  0  0
    0.5334   -0.1667   -0.3626 C   0  0  0  0  0  0  0  0  0  0  0  0
    1.2974   -0.3998    0.7890 O   0  0  0  0  0  0  0  0  0  0  0  0
   -1.5265    0.2180   -0.9140 H   0  0  0  0  0  0  0  0  0  0  0  0
   -1.3243   -0.8185    0.5528 H   0  0  0  0  0  0  0  0  0  0  0  0
   -1.0198    0.9636    0.6516 H   0  0  0  0  0  0  0  0  0  0  0  0
    0.6042   -1.0556   -1.0243 H   0  0  0  0  0  0  0  0  0  0  0  0
    0.9271    0.7122   -0.9219 H   0  0  0  0  0  0  0  0  0  0  0  0
    1.4353    0.4831    1.2218 H   0  0  0  0  0  0  0  0  0  0  0  0
  1  2  1  0
  2  3  1  0
  1  4  1  0
  1  5  1  0
  1  6  1  0
  2  7  1  0
  2  8  1  0
  3  9  1  0
M  END
>  <Energy>  (6) 
0

$$$$

     RDKit          3D

  9  8  0  0  0  0  0  0  0  0999 V2000
   -1.0278    0.0022    0.0250 C   0  0  0  0  0  0  0  0  0  0  0  0
    0.4693   -0.2244   -0.1175 C   0  0  0  0  0  0  0  0  0  0  0  0
    1.1622    0.8807    0.3910 O   0  0  0  0  0  0  0  0  0  0  0  0
   -1.5794   -0.8734   -0.3778 H   0  0  0  0  0  0  0  0  0  0  0  0
   -1.3305    0.9095   -0.5397 H   0  0  0  0  0  0  0  0  0  0  0  0
   -1.2924    0.1332    1.0957 H   0  0  0  0  0  0  0  0  0  0  0  0
    0.7169   -0.3643   -1.1933 H   0  0  0  0  0  0  0  0  0  0  0  0
    0.7551   -1.1416    0.4441 H   0  0  0  0  0  0  0  0  0  0  0  0
    2.1265    0.6781    0.2724 H   0  0  0  0  0  0  0  0  0  0  0  0
  1  2  1  0
  2  3  1  0
  1  4  1  0
  1  5  1  0
  1  6  1  0
  2  7  1  0
  2  8  1  0
  3  9  1  0
M  END
>  <Energy>  (7) 
0

$$$$

     RDKit          3D

  9  8  0  0  0  0  0  0  0  0999 V2000
   -1.0253    0.0157    0.0743 C   0  0  0  0  0  0  0  0  0  0  0  0
    0.4623   -0.2433   -0.1071 C   0  0  0  0  0  0  0  0  0  0  0  0
    1.1826    0.9157    0.2053 O   0  0  0  0  0  0  0  0  0  0  0  0
   -1.2362    0.2995    1.1272 H   0  0  0  0  0  0  0  0  0  0  0  0
   -1.5986   -0.9026   -0.1730 H   0  0  0  0  0  0  0  0  0  0  0  0
   -1.3530    0.8370   -0.5979 H   0  0  0  0  0  0  0  0  0  0  0  0
    0.7729   -1.0746    0.5643 H   0  0  0  0  0  0  0  0  0  0  0  0
    0.6560   -0.5364   -1.1630 H   0  0  0  0  0  0  0  0  0  0  0  0
    2.1393    0.6891    0.0699 H   0  0  0  0  0  0  0  0  0  0  0  0
  1  2  1  0
  2  3  1  0
  1  4  1  0
  1  5  1  0
  1  6  1  0
  2  7  1  0
  2  8  1  0
  3  9  1  0
M  END
>  <Energy>  (8) 
0

$$$$

     RDKit          3D

  9  8  0  0  0  0  0  0  0  0999 V2000
   -0.9271    0.0232    0.0533 C   0  0  0  0  0  0  0  0  0  0  0  0
    0.5340    0.2205   -0.3315 C   0  0  0  0  0  0  0  0  0  0  0  0
    1.3631    0.0142    0.7794 O   0  0  0  0  0  0  0  0  0  0  0  0
   -1.5755    0.2177   -0.8268 H   0  0  0  0  0  0  0  0  0  0  0  0
   -1.0934   -1.0192    0.3985 H   0  0  0  0  0  0  0  0  0  0  0  0
   -1.2040    0.7262    0.8674 H   0  0  0  0  0  0  0  0  0  0  0  0
    0.8068   -0.4746   -1.1577 H   0  0  0  0  0  0  0  0  0  0  0  0
    0.6763    1.2600   -0.6953 H   0  0  0  0  0  0  0  0  0  0  0  0
    1.4198   -0.9681    0.9128 H   0  0  0  0  0  0  0  0  0  0  0  0
  1  2  1  0
  2  3  1  0
  1  4  1  0
  1  5  1  0
  1  6  1  0
  2  7  1  0
  2  8  1  0
  3  9  1  0
M  END
>  <Energy>  (9) 
0

$$$$

     RDKit          3D

  9  8  0  0  0  0  0  0  0  0999 V2000
   -0.9236    0.0975   -0.0173 C   0  0  0  0  0  0  0  0  0  0  0  0
    0.5182   -0.3409   -0.2429 C   0  0  0  0  0  0  0  0  0  0  0  0
    1.3977    0.7149    0.0327 O   0  0  0  0  0  0  0  0  0  0  0  0
   -1.1623    0.9673   -0.6654 H   0  0  0  0  0  0  0  0  0  0  0  0
   -1.6120   -0.7373   -0.2667 H   0  0  0  0  0  0  0  0  0  0  0  0
   -1.0742    0.3817    1.0457 H   0  0  0  0  0  0  0  0  0  0  0  0
    0.6439   -0.6427   -1.3042 H   0  0  0  0  0  0  0  0  0  0  0  0
    0.7522   -1.2221    0.3965 H   0  0  0  0  0  0  0  0  0  0  0  0
    1.4601    0.7816    1.0214 H   0  0  0  0  0  0  0  0  0  0  0  0
  1  2  1  0
  2  3  1  0
  1  4  1  0
  1  5  1  0
  1  6  1  0
  2  7  1  0
  2  8  1  0
  3  9  1  0
M  END
>  <Energy>  (10) 
0

$$$$
